!Reaction Mechanism of iso-butanol in CHEMKIN format
!Title:   Experimental and kinetic modeling study of i-Butanol pyrolysis and combustion
!Authors: Jianghuai Cai, Wenhao Yuan, Lili Ye, Zhanjun Cheng, Yizun Wang, Weile Dong, Lidong Zhang, Feng Zhang, Yuyang Li, Fei Qi*
!Address: National Synchrotron Radiation Laboratory, University of Science and Technology of China, Hefei, Anhui 230029, P. R. China
!Corresponding author: National Synchrotron Radiation Laboratory, University of Science and Technology of China, E-mail: fqi@ustc.edu.cn
!
!
!
!
!
ELEMENTS
O  H  C  N  AR  HE 
END
SPECIES
!
!**************************** C0 species *********************************************************
!
 AR        N2          HE         H          H2         O         OH        H2O      HO2   
 H2O2      O2 
!                                      
!**************************** C1 species ********************************************************* 
!                                                   
 C         CH          CH2        CH2*       CH3        CH4       CH*       CO        CO2
 CH2O      HCO         CH2OH      CH3O       CH3OH      HOCHO     HOCH2O    
! 
!**************************** C2 species *********************************************************
!                                                    
 C2H       C2H2        H2CC       C2H3       C2H4       C2H5      C2H6      C2O       HCCO     
 CH2CO     CH3CO       CH3CHO     C2H3OH     C2H5O      CH2OCH    CH2OCH2   CH2CHO    HCCOH    
 HCCOH     C2H4OH      HCCHOH     CH2COH     CH3CHOH    CH2COH  
!            
!**************************** C3 species *********************************************************
!                                                    
 C3H2      C3H3        pC3H4      aC3H4      cC3H4      aC3H5     CH3CCH2   CH3CHCH
 C3H6      nC3H7       iC3H7      C3H8       C2H3CHO 
 CC3H6OH   C3H5OH      C2H5CHO   C3H5O-enol2 C3H5OJ(13) C3H4O  C3H5O
!                                             
!**************************** C4 species *********************************************************
!                                                   
 C4H       C4H2        nC4H3      iC4H3      C4H4       nC4H5     iC4H5     C4H5-2    C4H6      
 C4H612    C4H6-2      SAXC4H7    C4H7       iC4H7      iC4H7-1   C4H7-2    CH3CCHCH3 
 C4H81     C4H82       iC4H8      pC4H9      sC4H9      iC4H9     tC4H9     C4H6-1 
 C4H10     iC4H10      H2C4O
!                                  
!**************************** C5 species *********************************************************
!                   
 C5H3      cC5H4       C5H4       lC5H5      C5H5       C5H6      lC5H7   C5H5O13    C5H5O24  
 C5H4O     C5H5OH      C5H4OH     C5H3O
! 
!**************************** C6 species *********************************************************                   
 C6H2      C6H3        l-C6H4     o-C6H4     nC6H5      A1-       fulvene   A1 
!
!********************* species involved in iso-butanol submechanism ******************************
!
iC4H9OH      iC4H8OH-1      iC4H8OH-2      iC4H8OH-3  iC4H9O
C3H6OH-2     iC3H6CHOH      iC3H5CH2OH     iC3H7CHO   CH3CHCHO  CH2CH2CHO
iC3H7CO      C2H3CO         tC3H6CHO       iC3H6CHO   iC3H5CHO   CH3CHOCH2
iC3H5CO      iC4H7O         iC3H6CO
!
!********************* species involved in sec-butanol submechanism ******************************
!
sC4H9OH     sC4H8OHm      sC4H8OH-1      sC4H8OH-2     sC4H8OH-3      sC4H9O 
sC2H4OH     iC3H6OH       C3H6OH-1       iC3H5OH       C4H7OH1-2      C4H7OH2-2
C4H7OH1-3   CH3CHCHOH     C2H5COCH3      CH3COCH3      C4H6OH1-32     C2H5OH     
C4H72-2     CH3COCH2      CH2CH2COCH3    CH3CHCOCH3    C2H5COCH2      CH3CHCO     
C4H7OH2-1   C2H5CO        C2H3COCH3      CH3COHCH3
! 
!********************** species involved in n-butanol submechanism *********************************
!
C4H9OH    C4H9O   C3H7CHO   AC4H8OH   BC4H8OH    CC4H8OH   DC4H8OH       
C4H7OH1-1   C4H7OH2-1     C4H7OH1-4    CH3CHCHCHO 
C4H7OJ(8) C4H7OJ(12) C4H7OJ(13) C4H7OJ(16)
!
!********************** species involved in t-butanol submechanism *********************************
!
!tC4H9OH tC4H8OH tC4H9O tC4H8OH-O2
! 
!********************** aromatic species involved **************************************************
A1O A1OH  


!************* NOTE: corresponding molecular structure or nomenclature of some species **************
!C4H6        1,3-butadiene
!C4H612      1,2-butadiene
!C4H6-1      1-butyne
!C4H6-2      2-butyne
!
!sC4H9OH     CH3CH(OH)CH2CH3  sec-butanol
!sC4H8OHm   *CH2CH(OH)CH2CH3
!sC4H8OH-1   CH3*C(OH)CH2CH3
!sC4H8OH-2   CH3CH(OH)*CHCH3
!sC4H8OH-3   CH3CH(OH)CH2*CH2
!sC4H9O      CH3CH(O*)CH2CH3
!C2H5OH      ethanol
!sC2H4OH     CH3*CH(OH)
!C2H4OH      *CH2CH2OH
!iC3H6OH     CH3CH(OH)*CH2
!C3H6OH-1    *CH(OH)CH2CH3
!iC3H5OH     CH3C(OH)=CH2   (C3H5OH1-2)
!C4H7OH1-2   CH2=C(OH)CH2CH3
!C4H7OH1-3   CH3C(OH)CH=CH2
!C4H7OH2-1   CH2(OH)CH=CHCH3
!C4H7OH2-2   CH3C(OH)=CHCH3
!C4H6OH1-32  CH2=C*-CH(OH)CH3
!CH3CHCHOH   CH3CH=CH(OH)
!C2H5COCH3   CH3CH2COCH3   2-butanone
!CH3COCH3    acetone
!CH3COCH2    CH3COCH2*
!CH3CHCO     CH3CH=C=O  methyl ketene
!C4H72-2     CH3*C=CHCH3
!C4H7        CH2=CHCH2CH2* (C4H71-4)
!C4H7-2      CH2=C*CH2CH3  (C4H71-2)
!SAXC4H7     CH2=CHCH*CH3  (C4H71-3)
!C2H5CO      CH3CH2C=O
!
!!   in iso-butanol submechanism !!!!!!!!!!!!!!
!iC4H9OH     iso-butanol
!iC3H7       iso-propyl radical
!CH2OH       (*CH2)OH
!C3H6OH-2    CH3(CH*)CH2OH
!iC4H8       iso-butene
!iC4H8OH-1   (CH3)2CH(CH*)OH
!iC4H8OH-2   (CH3)2(C*)CH2OH
!iC4H8OH-3   CH3(CH2*)CHCH2OH
!CH3CHCHOH   CH3CH=CHOH propenol
!iC3H7CHO    (CH3)2CHCHO iso-butanal
!iC3H6CHOH   (CH3)2CH=CHOH iso-butenol
!iC3H5CH2OH  (CH3)CH2=CCH2OH
!C3H5OH      CH2=CHCH2OH  allyl alcohol
!CH3CHCHO    CH3(CH*)CHO
!CH2CH2CHO   (CH2*)CH2CHO
!iC3H7CO     (CH3)2CHCO
!tC3H6CHO    (CH3)2C*CHO
!iC3H5CHO    (CH3)CH2=CCHO iso-butenyl aldehyde
!iC3H5CO      (CH3)CH2=CC=O
!iC3H6CO     (CH3)2CCO  dimethylketene
!
REACTIONS
!#########################################################################################################################
!                                              submechanism of iso-butanol                                               #
!#########################################################################################################################

!***************************************** C-C bond dissociation reactions ********************************************************
 iC4H9OH=iC3H7+CH2OH                               1.0            0.0           0.0             !2012 Zhou & Klippenstein & Simmie & Curran 
            PLOG  /0.0013                          4.68E+119      -30.73        133860.2   /    !/2 to accord with that measured by Rosado-Reyes and Tsang                  
            PLOG  /0.0132                          8.65E+108      -27.23        131424.2   /    !/2 to accord with that measured by Rosado-Reyes and Tsang
            PLOG  /0.1316                          2.04E+102      -24.97        131706.3   /    !/2 to accord with that measured by Rosado-Reyes and Tsang
            PLOG  /1.0000                          5.45E+95       -22.81        131473.8   /    !/2 to accord with that measured by Rosado-Reyes and Tsang
            PLOG  /10.000                          1.19E+83       -18.96        127108.4   /    !/2 to accord with that measured by Rosado-Reyes and Tsang
            PLOG  /100.00                          2.86E+64       -13.56        116986.6   /    !/2 to accord with that measured by Rosado-Reyes and Tsang
            DUPLICATE                                                                           !                                          
 iC4H9OH=iC3H7+CH2OH                               5.00E-01       0.0           0.0             !2012 Zhou & Klippenstein & Simmie & Curran                      
            PLOG  /0.0013                          1.74E+71       -17.07        101579.4   /    !/2 to accord with that measured by Rosado-Reyes and Tsang                       
            PLOG  /0.0132                          4.68E+66       -15.58        100309.7   /    !/2 to accord with that measured by Rosado-Reyes and Tsang                              
            PLOG  /0.1316                          5.05E+61       -13.96        98980.4    /    !/2 to accord with that measured by Rosado-Reyes and Tsang                              
            PLOG  /1.0000                          3.21E+53       -11.35        96321.8    /    !/2 to accord with that measured by Rosado-Reyes and Tsang                              
            PLOG  /10.000                          4.71E+43       -8.27         92856.5    /    !/2 to accord with that measured by Rosado-Reyes and Tsang                              
            PLOG  /100.00                          2.61E+35       -5.71         89772.7    /    !/2 to accord with that measured by Rosado-Reyes and Tsang                              
            DUPLICATE                                                                           !                           
                                                                                           
 iC4H9OH=C3H6OH-2+CH3                              1.0            0.0	        0.0             !2012 Zhou & Klippenstein & Simmie & Curran                                        
            PLOG  /0.0013                          3.86E+123      -32.00    	138756.2   /    !   
            PLOG  /0.0132                          2.93E+112      -28.32    	136349.9   /    !   
            PLOG  /0.1316                          8.13E+104      -25.73    	136363.8   /    !   
            PLOG  /1.0000                          7.15E+98       -23.67    	136864.6   /    !   
            PLOG  /10.000                          9.95E+24       -2.35    	90670      /    !
            PLOG  /100.00                          5.40E+63       -13.26    	120382.4   /    !   
            DUPLICATE                                                                           !   
 iC4H9OH=C3H6OH-2+CH3                              1.0            0.0	        0.0             !2012 Zhou & Klippenstein & Simmie & Curran                                        
            PLOG  /0.0013                          1.33E+76 	  -18.54    	107707.3   /    !                                         
            PLOG  /0.0132                          2.47E+70 	  -16.65    	106236.9   /    !                                         
            PLOG  /0.1316                          8.83E+65 	  -15.18    	105173.9   /    !                                         
            PLOG  /1.0000                          9.67E+56 	  -12.32    	102314.6   /    !                                         
            PLOG  /10.000                          2.53E+57 	  -12.32    	102314.6   /    !
            PLOG  /100.00                          2.71E+38 	  -6.52     	95668.1    /    ! 
            DUPLICATE                                                                      
                                                                                           
 iC4H9OH=iC4H8+H2O                                 1.0            0.0	        0.0             !2012 Zhou & Klippenstein & Simmie & Curran
            PLOG  /0.0013                          5.18E+94       -23.93     	112376.8   /    !*2.4 to accord with that measured by Rosado-Reyes and Tsang       
            PLOG  /0.0132                          4.39E+89       -22.19     	112716.5   /    !       
            PLOG  /0.1316                          4.73E+82       -19.93     	111907.8   /    !       
            PLOG  /1.0000                          8.57E+71       -16.66     	107794.8   /    !       
            PLOG  /10.000                          7.51E+51       -10.82     	96534.4    /    !
            PLOG  /100.00                          1.02E+28       -4.00      	80777.5    /    !       
            DUPLICATE                                                                           !                   
 iC4H9OH=iC4H8+H2O                                 1.0            0.0	        0.0             !2012 Zhou & Klippenstein & Simmie & Curran
            PLOG  /0.0013                          1.62E+42       -9.46         74756.9    /    !*2.4 to accord with that measured by Rosado-Reyes and Tsang  
            PLOG  /0.0132                          1.13E+39       -8.40         74154.8    /    !           
            PLOG  /0.1316                          1.38E+32       -6.17         72092.3    /    !           
            PLOG  /1.0000                          1.24E+25       -3.95         69733.8    /    !           
            PLOG  /10.000                          1.22E+17       -1.46         66717.5    /    ! 
            PLOG  /100.00                          1.40E+10        0.61         63605.9    /    !           
            DUPLICATE                                                                      
                                                                                           
 iC3H7+CH2OH=C3H6OH-2+CH3                          1.0            0.0	        0.0             !2012 Zhou & Klippenstein & Simmie & Curran
             PLOG  /0.0013                         9.25E+34	  -6.34         19774.6    /    !
             PLOG  /0.0132                         1.00E+58	  -12.95        36225.0    /    !
             PLOG  /0.1316                         1.90E+43	  -8.39         32199.3    /    !
             PLOG  /1.0000                         8.36E+51	  -10.66        43241.1    /    !
             PLOG  /10.000                         2.39E+49	  -9.74         48035.7    /    !
             PLOG  /100.00                         6.65E+35	  -5.81         44934.0    /    !
             DUPLICATE                                                                     
 iC3H7+CH2OH=C3H6OH-2+CH3                          1.0            0.0	        0.0             !2012 Zhou & Klippenstein & Simmie & Curran
             PLOG  /0.0013                         3.89E+84 	  -19.17        88475.1    /    !
             PLOG  /0.0132                         3.30E+21 	  -2.37         15649.6    /    !
             PLOG  /0.1316                         9.61E+117	  -33.28        47783.4    /    !
             PLOG  /1.0000                         7.72E+17 	  -1.46         17088.2    /    !
             PLOG  /10.000                         1.34E+09 	  1.11          15280.0    /    !
             PLOG  /100.00                         8.10E-05 	  4.98          11210.7    /    !
             DUPLICATE                                                                     
                                                                                           
 iC3H7+CH2OH=iC4H8+H2O                             1.0            0.0	           0.0          !2012 Zhou & Klippenstein & Simmie & Curran
             PLOG  /0.0013                         1.13E+58       -13.67        27243.8    /    !
             PLOG  /0.0132                         2.63E+42       -8.87         22918.1    /    !
             PLOG  /0.1316                         4.28E+57       -13.04        38072.9    /    !
             PLOG  /1.0000                         4.31E+51       -11.11        39787.7    /    !
             PLOG  /10.000                         9.48E+45       -9.33         42674.8    /    !
             PLOG  /100.00                         4.93E+29       -4.65         37530.5    /    !
             DUPLICATE                                                                     
 iC3H7+CH2OH=iC4H8+H2O                             1.0            0.0	           0.0          !2012 Zhou & Klippenstein & Simmie & Curran     
             PLOG  /0.0013                         7.47E+15 	  -1.43         4896.0     /    !
             PLOG  /0.0132                         5.18E+152	  -45.25        49792.2    /    !
             PLOG  /0.1316                         8.16E+13 	  -0.81         8564.0     /    !
             PLOG  /1.0000                         3.89E+12 	  -0.57         9084.6     /    !
             PLOG  /10.000                         3.79E+00 	  2.98          5821.9     /    !
             PLOG  /100.00                         2.24E-13 	  6.83          1591.6     /    !
             DUPLICATE
!
!***************************************** C-H bond dissociation reactions *********************************************************
iC4H9OH(+M)<=>iC4H8OH-1+H(+M)                      5.68E+16      -0.297         9.5908E+04      ! S.M. Sarathy et al. 2012
                                              LOW /1.89E+49      -9.561         9.0472E+04 /    ! S.M. Sarathy et al. 2012 
                                        TROE /2.0948E-05 1.1642E+03 1.6818E+10  3.7049E+03 /    
                                                                                                
iC4H9OH(+M)<=>iC4H8OH-2+H(+M)                      1.70e+17      -0.467         9.8199e+04      ! S.M. Sarathy et al. 2012 
                                              LOW /2.48E+46      -8.823         9.0945E+04 /    ! S.M. Sarathy et al. 2012 
                                        TROE /1.4595E-01 1.0340E+03 1.0695E+11 5.1292E+03  /    ! S.M. Sarathy et al. 2012 
                                                                                                
iC4H9OH(+M)<=>iC4H8OH-3+H(+M)                      5.00e+17      -0.462         1.0249e+05      ! S.M. Sarathy et al. 2012
                                              LOW /3.32E+41      -7.365         9.2821E+04 /    ! S.M. Sarathy et al. 2012 
                                        TROE /2.7069E-01 2.7419E+03 1.2872E+2 9.6562E+03   /    ! S.M. Sarathy et al. 2012 
                                                                                                
iC4H9OH(+M)<=>iC4H9O+H(+M)                         1.20e+15       0.016         1.0518e+05      ! S.M. Sarathy et al. 2012
                                              LOW /1.49E+36      -6.144         9.4567E+04 /    ! S.M. Sarathy et al. 2012 
                                        TROE /4.9994E-01 6.2096E+03 6.6550E+02 2.9000E+06  /    ! S.M. Sarathy et al. 2012 


!***************************************** H-abstraction reactions ******************************************************************
!---------------------------------------------------------------------------------------------------------------------------------------------
 iC4H9OH+H=iC4H8OH-1+H2                            8.80e+04       2.70          2915            ! S.M. Sarathy et al. 2012
 iC4H9OH+H=iC4H8OH-2+H2                            1.20E+06       2.40          4471            ! 2013 Stranic & R.K. Hanson modified   
 iC4H9OH+H=iC4H8OH-3+H2                            6.66e+05       2.54          6756            ! 2013 Stranic & R.K. Hanson modified    
 iC4H9OH+H=iC4H9O+H2                               4.72e+02       3.10          8701            ! 2013 Stranic & R.K. Hanson modified
 
 iC4H9OH+OH=iC4H8OH-1+H2O                          3.61e+03       2.89          -2290	        ! 2013 Green model 
 iC4H9OH+OH=iC4H8OH-2+H2O                          1.54e+00       3.7           -4940           ! 2013 Green model
 iC4H9OH+OH=iC4H8OH-3+H2O                          5.40e+06       2.0           510             ! 2013 Green model  
 iC4H9OH+OH=iC4H9O+H2O                             5.88e+02       2.82          -580            ! 2013 Green model   

 iC4H9OH+CH3=iC4H8OH-1+CH4                         1.53e+01       3.31          6950            ! 2013 Green model CBS-QB3 caculated                   
 iC4H9OH+CH3=iC4H8OH-2+CH4                         7.26e+01       3.13          6290            ! 2013 Green model CBS-QB3 caculated 
 iC4H9OH+CH3=iC4H8OH-3+CH4                         1.55e+01       3.41          9950            ! 2013 Green model CBS-QB3 caculated 
 iC4H9OH+CH3=iC4H9O+CH4                            1.44e+01       3.1           6936            ! 2013 Green model CBS-QB3 caculated
                                                               
 iC4H8OH-3+H2O2=iC4H9OH+HO2	                   3.01e+0        3.28          1.05e+03        ! 2013 Green model CBS-QB3 caculated 
 iC4H8OH-2+H2O2=iC4H9OH+HO2	                   2.91e+0        3.31          1.41e+03        ! 2013 Green model CBS-QB3 caculated 
 iC4H8OH-1+H2O2=iC4H9OH+HO2	                   5.69e+1        3.04          1.21e+03        ! 2013 Green model CBS-QB3 caculated 
 iC4H9O+H2O2=iC4H9OH+HO2	                   34.6      	  3.4 	       -1.14e+03	! 2013 Green model CBS-QB3 caculated 
                                                                        
 iC4H9OH+O=iC4H8OH-1+OH                            7.25e+04       2.47          8.760e+02       ! S.M. Sarathy et al. 2012 
 iC4H9OH+O=iC4H8OH-2+OH                            2.76e+05       2.45          2.830e+03       ! S.M. Sarathy et al. 2012 
 iC4H9OH+O=iC4H8OH-3+OH                            1.96e+06       2.43          4.750e+03       ! S.M. Sarathy et al. 2012 
 iC4H9OH+O=iC4H9O+OH                               1.46e-03       4.73          1.727e+03       ! S.M. Sarathy et al. 2012 
                                                                         
 iC4H9OH+HCO=iC4H8OH-1+CH2O                        1.00e+07       1.90          1.700e+04       ! S.M. Sarathy et al. 2012 
 iC4H9OH+HCO=iC4H8OH-2+CH2O                        5.45e+06       1.90          1.701e+04       ! S.M. Sarathy et al. 2012 
 iC4H9OH+HCO=iC4H8OH-3+CH2O                        2.04e+05       2.50          1.844e+04       ! S.M. Sarathy et al. 2012 
 iC4H9OH+HCO=iC4H9O+CH2O                           3.40e+04       2.50          1.350e+04       ! S.M. Sarathy et al. 2012 
                                                                         
 iC4H9OH+C2H5=iC4H8OH-1+C2H6                       2.01e+11       0.00          7.900e+03       ! S.M. Sarathy et al. 2012 
 iC4H9OH+C2H5=iC4H8OH-2+C2H6                       1.01e+11       0.00          7.900e+03       ! S.M. Sarathy et al. 2012 
 iC4H9OH+C2H5=iC4H8OH-3+C2H6                       1.00e+11       0.00          1.340e+04       ! S.M. Sarathy et al. 2012 
 iC4H9OH+C2H5=iC4H9O+C2H6                          1.67e+10       0.00          1.340e+04       ! S.M. Sarathy et al. 2012 
                                                                         
 iC4H9OH+O2=iC4H8OH-1+HO2                          2.00e+13       0.000         4.680e+04       ! S.M. Sarathy et al. 2012 
 iC4H9OH+O2=iC4H8OH-2+HO2                          2.00e+13       0.000         4.820e+04       ! S.M. Sarathy et al. 2012 
 iC4H9OH+O2=iC4H8OH-3+HO2                          6.00e+13       0.000         5.234e+04       ! S.M. Sarathy et al. 2012 
 iC4H9OH+O2=iC4H9O+HO2                             1.00e+13       0.000         5.634e+04       ! S.M. Sarathy et al. 2012 
                                                                         
 iC4H9OH+CH2OH=iC4H8OH-1+CH3OH                     6.000e+01      2.950         1.200e+04       ! S.M. Sarathy et al. 2012 
 iC4H9OH+CH2OH=iC4H8OH-2+CH3OH                     3.010e+01      2.950         1.198e+04       ! S.M. Sarathy et al. 2012 
 iC4H9OH+CH2OH=iC4H8OH-3+CH3OH                     2.020e+02      2.950         1.397e+04       ! S.M. Sarathy et al. 2012 
 iC4H9OH+CH2OH=iC4H9O+CH3OH                        1.200e+02      2.760         1.080e+04       ! S.M. Sarathy et al. 2012 
                                                                         
 iC4H9OH+CH3O=iC4H8OH-1+CH3OH                      7.500e+10      0.000         4.500e+03       ! S.M. Sarathy et al. 2012 
 iC4H9OH+CH3O=iC4H8OH-2+CH3OH                      7.250e+10      0.000         4.571e+03       ! S.M. Sarathy et al. 2012 
 iC4H9OH+CH3O=iC4H8OH-3+CH3OH                      4.340e+11      0.000         6.458e+03       ! S.M. Sarathy et al. 2012 
 iC4H9OH+CH3O=iC4H9O+CH3OH                         2.300e+10      0.000         2.900e+03       ! S.M. Sarathy et al. 2012 
                                                                        
!***************************************** Radical beta-scission reactions **********************************************************
                                                                        
 iC4H8OH-1= CH3CHCHOH +CH3                         3.37E+18	  -3.051 	  20907.6       ! caculated in this work 
            PLOG  /0.006579                        3.37E+18	  -3.051 	  20907.6 /     !        
            PLOG  /0.039474                        2.94E+22	  -3.933   	  24108.5 /     ! 
            PLOG  /0.092105                        3.67E+24	  -4.413 	  25895.1 /     !      
            PLOG  /0.263158                        4.23E+27	  -5.136 	  28536.5 /     !  
            PLOG  /1.000000                        7.61E+31	  -6.155 	  32349.9 /     !  
            PLOG  /10.00000                        7.70E+39	  -8.083 	  40074.8 /     ! 
            PLOG  /100.0000                        6.44E+45	  -9.413 	  47205.1 /     !  
!           HPL                                    2.85E+14        0.193 	  34477.9 /     !                                              
                                                                   
 iC4H8OH-1= iC3H7CHO +H                            1.19E+17	  -2.915 	  21060.9       ! caculated in this work
            PLOG  /0.006579                        1.19E+17	  -2.915 	  21060.9 /     !       
            PLOG  /0.039474                        2.59E+21	  -3.893 	  24472.5 /     !      
            PLOG  /0.092105                        4.64E+23	  -4.411 	  26343.3 /     !     
            PLOG  /0.263158                        5.68E+26	  -5.134          28987.8 /     !  
            PLOG  /1.000000                        1.57E+31	  -6.195 	  32924.7 /     !    
            PLOG  /10.00000                        2.88E+39	  -8.180 	  40864.0 /     !    
            PLOG  /100.0000                        6.50E+45	  -9.616 	  48377.6 /     !    
!           HPL                                    2.94E+13	   0.310 	  35416.8 /     !
                                                                   
iC4H8OH-1= iC3H6CHOH +H                            7.46E+14	  -2.644   	  21322.3       ! caculated in this work 
            PLOG  /0.006579                        7.46E+14	  -2.644   	  21322.3 /     !      
            PLOG  /0.039474                        3.40E+19	  -3.693 	  24808.1 /     !       
            PLOG  /0.092105                        8.85E+21	  -4.248 	  26742.8 /     !  
            PLOG  /0.263158                        2.07E+25	  -5.040 	  29538.3 /     !  
            PLOG  /1.000000                        9.08E+29	  -6.142 	  33602.1 /     !    
            PLOG  /10.00000                        6.50E+38	  -8.270 	  41968.5 /     !  
            PLOG  /100.0000                        6.25E+45	  -9.857 	  50051.9 /     !  
!           HPL                                    6.85E+11	   0.594 	  36713.8 /     !
                                                                        
!************************************iC4H8OH-2 radical**************************************** 
                                                                        
iC4H8OH-2= iC4H8 +OH                               1.02E+08	  -0.253 	  9250.4        ! caculated in this work  
            PLOG  /0.006579                        1.02E+08	  -0.253 	  9250.4  /     !       
            PLOG  /0.039474                        1.86E+10	  -0.681 	  10869.7 /     !      
            PLOG  /0.092105                        3.77E+11	  -0.949 	  11875.7 /     !        
            PLOG  /0.263158                        2.80E+13	  -1.352 	  13386.2 /     !       
            PLOG  /1.000000                        1.63E+16	  -1.970 	  15757.6 /     !  
            PLOG  /10.00000                        2.56E+22	  -3.429 	  21442.3 /     !  
            PLOG  /100.0000                        2.18E+28	  -4.805 	  27870.5 /     !  
!           HPL                                    1.57E+11	   0.565 	  22083.7 /     !
                                                                   
iC4H8OH-2= iC3H6CHOH +H                           1.13E-09	   3.483 	  11412.5       ! caculated in this work 
            PLOG  /0.006579                       1.13E-09	   3.483 	  11412.5 /     !  
            PLOG  /0.039474                       1.63E-01	   1.528 	  13592.6 /     !
            PLOG  /0.092105                       3.97E+02	   0.751 	  15021.3 /     ! 
            PLOG  /0.263158                       4.05E+06	  -0.157           17118.7 /     !
            PLOG  /1.000000                       4.75E+11	  -1.303 	  20383.5 /     !
            PLOG  /10.00000                       4.33E+21	  -3.627 	  28298.1 /     !
            PLOG  /100.0000                       1.55E+32	  -6.118 	  38535.4 /     !   
!           HPL                                   1.09E+10	   1.037 	  32946.6 /     !
                                                                   
iC4H8OH-2= iC3H5CH2OH +H                           2.33E-16	   5.070 	  12056.3       ! caculated in this work 
            PLOG  /0.006579                        2.33E-16	   5.070 	  12056.3 /     !      
            PLOG  /0.039474                        1.98E-07	   2.879 	  12833.7 /     !         
            PLOG  /0.092105                        1.47E-03	   1.970 	  13984.8 /     !       
            PLOG  /0.263158                        3.76E+01	   0.963 	  15851.1 /     !   
            PLOG  /1.000000                        5.47E+06	  -0.190 	  18752.9 /     !  
            PLOG  /10.00000                        3.45E+16	  -2.433 	  26200.0 /     !  
            PLOG  /100.0000                        1.83E+28	  -5.218 	  37262.2 /     !  
!           HPL                                    7.23E+09	   0.964 	  35247.1 /     !
Duplicate                                                          