units(length='cm', time='s', quantity='mol', act_energy='cal/mol')

ideal_gas(name='gas',
          elements="O H C N Ar He",
          species="""AR           N2           HE           H            H2           
                     O            OH           H2O          HO2          H2O2         
                     O2           C            CH           CH2          CH2*         
                     CH3          CH4          CH*          CO           CO2          
                     CH2O         HCO          CH2OH        CH3O         CH3OH        
                     HOCHO        HOCH2O       C2H          C2H2         H2CC         
                     C2H3         C2H4         C2H5         C2H6         C2O          
                     HCCO         CH2CO        CH3CO        CH3CHO       C2H3OH       
                     C2H5O        CH2OCH       CH2OCH2      CH2CHO       HCCOH        
                     C2H4OH       HCCHOH       CH2COH       CH3CHOH      C3H2         
                     C3H3         pC3H4        aC3H4        cC3H4        aC3H5        
                     CH3CCH2      CH3CHCH      C3H6         nC3H7        iC3H7        
                     C3H8         C2H3CHO      CC3H6OH      C3H5OH       C2H5CHO      
                     C3H5O-enol2  C3H5OJ(13)   C3H4O        C3H5O        C4H          
                     C4H2         nC4H3        iC4H3        C4H4         nC4H5        
                     iC4H5        C4H5-2       C4H6         C4H612       C4H6-2       
                     SAXC4H7      C4H7         iC4H7        iC4H7-1      C4H7-2       
                     CH3CCHCH3    C4H81        C4H82        iC4H8        pC4H9        
                     sC4H9        iC4H9        tC4H9        C4H6-1       C4H10        
                     iC4H10       H2C4O        C5H3         cC5H4        C5H4         
                     lC5H5        C5H5         C5H6         lC5H7        C5H5O13      
                     C5H5O24      C5H4O        C5H5OH       C5H4OH       C5H3O        
                     C6H2         C6H3         l-C6H4       o-C6H4       nC6H5        
                     A1-          fulvene      A1           iC4H9OH      iC4H8OH-1    
                     iC4H8OH-2    iC4H8OH-3    iC4H9O       C3H6OH-2     iC3H6CHOH    
                     iC3H5CH2OH   iC3H7CHO     CH3CHCHO     CH2CH2CHO    iC3H7CO      
                     C2H3CO       tC3H6CHO     iC3H6CHO     iC3H5CHO     CH3CHOCH2    
                     iC3H5CO      iC4H7O       iC3H6CO      sC4H9OH      sC4H8OHm     
                     sC4H8OH-1    sC4H8OH-2    sC4H8OH-3    sC4H9O       sC2H4OH      
                     iC3H6OH      C3H6OH-1     iC3H5OH      C4H7OH1-2    C4H7OH2-2    
                     C4H7OH1-3    CH3CHCHOH    C2H5COCH3    CH3COCH3     C4H6OH1-32   
                     C2H5OH       C4H72-2      CH3COCH2     CH2CH2COCH3  CH3CHCOCH3   
                     C2H5COCH2    CH3CHCO      C4H7OH2-1    C2H5CO       C2H3COCH3    
                     CH3COHCH3    C4H9OH       C4H9O        C3H7CHO      AC4H8OH      
                     BC4H8OH      CC4H8OH      DC4H8OH      C4H7OH1-1    C4H7OH1-4    
                     CH3CHCHCHO   C4H7OJ(8)    C4H7OJ(12)   C4H7OJ(13)   C4H7OJ(16)   
                     A1O          A1OH""",
          reactions='all',
          initial_state=state(temperature=300.0, pressure=OneAtm))

#-------------------------------------------------------------------------------
# Species data
#-------------------------------------------------------------------------------

species(name='AR',
        atoms='Ar:1',
        thermo=(NASA([300.00, 1000.00],
                     [ 2.50000000E+00,  0.00000000E+00,  0.00000000E+00,
                       0.00000000E+00,  0.00000000E+00, -7.45375000E+02,
                       4.36600000E+00]),
                NASA([1000.00, 5000.00],
                     [ 2.50000000E+00,  0.00000000E+00,  0.00000000E+00,
                       0.00000000E+00,  0.00000000E+00, -7.45375000E+02,
                       4.36600000E+00])),
        note='120186')

species(name='N2',
        atoms='N:2',
        thermo=(NASA([300.00, 1000.00],
                     [ 3.29867700E+00,  1.40824040E-03, -3.96322200E-06,
                       5.64151500E-09, -2.44485400E-12, -1.02089990E+03,
                       3.95037200E+00]),
                NASA([1000.00, 5000.00],
                     [ 2.92664000E+00,  1.48797680E-03, -5.68476000E-07,
                       1.00970380E-10, -6.75335100E-15, -9.22797700E+02,
                       5.98052800E+00])),
        note='121286')

species(name='HE',
        atoms='He:1',
        thermo=(NASA([200.00, 1000.00],
                     [ 2.50000000E+00,  0.00000000E+00,  0.00000000E+00,
                       0.00000000E+00,  0.00000000E+00, -7.45375000E+02,
                       9.28723974E-01]),
                NASA([1000.00, 6000.00],
                     [ 2.50000000E+00,  0.00000000E+00,  0.00000000E+00,
                       0.00000000E+00,  0.00000000E+00, -7.45375000E+02,
                       9.28723974E-01])),
        note='L10/90')

species(name='H',
        atoms='H:1',
        thermo=(NASA([200.00, 1000.00],
                     [ 2.50000000E+00,  7.05332819E-13, -1.99591964E-15,
                       2.30081632E-18, -9.27732332E-22,  2.54736599E+04,
                      -4.46682853E-01]),
                NASA([1000.00, 3500.00],
                     [ 2.50000001E+00, -2.30842973E-11,  1.61561948E-14,
                      -4.73515235E-18,  4.98197357E-22,  2.54736599E+04,
                      -4.46682914E-01])),
        note='L7/88')

species(name='H2',
        atoms='H:2',
        thermo=(NASA([200.00, 1000.00],
                     [ 2.34433112E+00,  7.98052075E-03, -1.94781510E-05,
                       2.01572094E-08, -7.37611761E-12, -9.17935173E+02,
                       6.83010238E-01]),
                NASA([1000.00, 3500.00],
                     [ 3.33727920E+00, -4.94024731E-05,  4.99456778E-07,
                      -1.79566394E-10,  2.00255376E-14, -9.50158922E+02,
                      -3.20502331E+00])),
        note='TPIS78')

species(name='O',
        atoms='O:1',
        thermo=(NASA([200.00, 1000.00],
                     [ 3.16826710E+00, -3.27931884E-03,  6.64306396E-06,
                      -6.12806624E-09,  2.11265971E-12,  2.91222592E+04,
                       2.05193346E+00]),
                NASA([1000.00, 3500.00],
                     [ 2.56942078E+00, -8.59741137E-05,  4.19484589E-08,
                      -1.00177799E-11,  1.22833691E-15,  2.92175791E+04,
                       4.78433864E+00])),
        note='L1/90')

species(name='OH',
        atoms='H:1 O:1',
        thermo=(NASA([200.00, 1000.00],
                     [ 4.12530561E+00, -3.22544939E-03,  6.52764691E-06,
                      -5.79853643E-09,  2.06237379E-12,  3.38153812E+03,
                      -6.90432960E-01]),
                NASA([1000.00, 6000.00],
                     [ 2.86472886E+00,  1.05650448E-03, -2.59082758E-07,
                       3.05218674E-11, -1.33195876E-15,  3.71885774E+03,
                       5.70164073E+00])),
        note='S9/01')

species(name='H2O',
        atoms='H:2 O:1',
        thermo=(NASA([200.00, 1000.00],
                     [ 4.19864056E+00, -2.03643410E-03,  6.52040211E-06,
                      -5.48797062E-09,  1.77197817E-12, -3.02937267E+04,
                      -8.49032208E-01]),
                NASA([1000.00, 3500.00],
                     [ 3.03399249E+00,  2.17691804E-03, -1.64072518E-07,
                      -9.70419870E-11,  1.68200992E-14, -3.00042971E+04,
                       4.96677010E+00])),
        note='L8/89')

species(name='HO2',
        atoms='H:1 O:2',
        thermo=(NASA([200.00, 1000.00],
                     [ 4.30179801E+00, -4.74912051E-03,  2.11582891E-05,
                      -2.42763894E-08,  9.29225124E-12,  2.94808040E+02,
                       3.71666245E+00]),
                NASA([1000.00, 3500.00],
                     [ 4.01721090E+00,  2.23982013E-03, -6.33658150E-07,
                       1.14246370E-10, -1.07908535E-14,  1.11856713E+02,
                       3.78510215E+00])),
        note='L5/89')

species(name='H2O2',
        atoms='H:2 O:2',
        thermo=(NASA([200.00, 1000.00],
                     [ 4.27611269E+00, -5.42822417E-04,  1.67335701E-05,
                      -2.15770813E-08,  8.62454363E-12, -1.77025821E+04,
                       3.43505074E+00]),
                NASA([1000.00, 3500.00],
                     [ 4.16500285E+00,  4.90831694E-03, -1.90139225E-06,
                       3.71185986E-10, -2.87908305E-14, -1.78617877E+04,
                       2.91615662E+00])),
        note='L7/88')

species(name='O2',
        atoms='O:2',
        thermo=(NASA([200.00, 1000.00],
                     [ 3.78245636E+00, -2.99673416E-03,  9.84730201E-06,
                      -9.68129509E-09,  3.24372837E-12, -1.06394356E+03,
                       3.65767573E+00]),
                NASA([1000.00, 3500.00],
                     [ 3.28253784E+00,  1.48308754E-03, -7.57966669E-07,
                       2.09470555E-10, -2.16717794E-14, -1.08845772E+03,
                       5.45323129E+00])),
        note='TPIS89')

species(name='C',
        atoms='C:1',
        thermo=(NASA([200.00, 1000.00],
                     [ 2.55423955E+00, -3.21537724E-04,  7.33792245E-07,
                      -7.32234889E-10,  2.66521446E-13,  8.54438832E+04,
                       4.53130848E+00]),
                NASA([1000.00, 3500.00],
                     [ 2.49266888E+00,  4.79889284E-05, -7.24335020E-08,
                       3.74291029E-11, -4.87277893E-15,  8.54512953E+04,
                       4.80150373E+00])),
        note='L11/88')

species(name='CH',
        atoms='C:1 H:1',
        thermo=(NASA([200.00, 1000.00],
                     [ 3.48981665E+00,  3.23835541E-04, -1.68899065E-06,
                       3.16217327E-09, -1.40609067E-12,  7.07972934E+04,
                       2.08401108E+00]),
                NASA([1000.00, 3500.00],
                     [ 2.87846473E+00,  9.70913681E-04,  1.44445655E-07,
                      -1.30687849E-10,  1.76079383E-14,  7.10124364E+04,
                       5.48497999E+00])),
        note='TPIS79')

species(name='CH2',
        atoms='C:1 H:2',
        thermo=(NASA([200.00, 1000.00],
                     [ 3.76267867E+00,  9.68872143E-04,  2.79489841E-06,
                      -3.85091153E-09,  1.68741719E-12,  4.60040401E+04,
                       1.56253185E+00]),
                NASA([1000.00, 3500.00],
                     [ 2.87410113E+00,  3.65639292E-03, -1.40894597E-06,
                       2.60179549E-10, -1.87727567E-14,  4.62636040E+04,
                       6.17119324E+00])),
        note='LS/93')

species(name='CH2*',
        atoms='C:1 H:2',
        thermo=(NASA([200.00, 1000.00],
                     [ 4.19860411E+00, -2.36661419E-03,  8.23296220E-06,
                      -6.68815981E-09,  1.94314737E-12,  5.04968163E+04,
                      -7.69118967E-01]),
                NASA([1000.00, 3500.00],
                     [ 2.29203842E+00,  4.65588637E-03, -2.01191947E-06,
                       4.17906000E-10, -3.39716365E-14,  5.09259997E+04,
                       8.62650169E+00])),
        note='LS/93')

species(name='CH3',
        atoms='C:1 H:3',
        thermo=(NASA([200.00, 1000.00],
                     [ 3.65717970E+00,  2.12659790E-03,  5.45838830E-06,
                      -6.61810030E-09,  2.46570740E-12,  1.64227160E+04,
                       1.67353540E+00]),
                NASA([1000.00, 6000.00],
                     [ 2.97812060E+00,  5.79785200E-03, -1.97558000E-06,
                       3.07297900E-10, -1.79174160E-14,  1.65095130E+04,
                       4.72247990E+00])),
        note='IU0702')

species(name='CH4',
        atoms='C:1 H:4',
        thermo=(NASA([200.00, 1000.00],
                     [ 5.14987613E+00, -1.36709788E-02,  4.91800599E-05,
                      -4.84743026E-08,  1.66693956E-11, -1.02466476E+04,
                      -4.64130376E+00]),
                NASA([1000.00, 3500.00],
                     [ 7.48514950E-02,  1.33909467E-02, -5.73285809E-06,
                       1.22292535E-09, -1.01815230E-13, -9.46834459E+03,
                       1.84373180E+01])),
        note='L8/88')

species(name='CH*',
        atoms='C:1 H:1',
        thermo=(NASA([200.00, 1000.00],
                     [ 3.47250101E+00,  4.26443626E-04, -1.95181794E-06,
                       3.51755043E-09, -1.60436174E-12,  1.04334869E+05,
                       1.44799533E+00]),
                NASA([1000.00, 3500.00],
                     [ 2.78220752E+00,  1.47246754E-03, -4.63436227E-07,
                       7.32736021E-11, -4.19705404E-15,  1.04547060E+05,
                       5.17421018E+00])),
        note='TPIS79')

species(name='CO',
        atoms='C:1 O:1',
        thermo=(NASA([200.00, 1000.00],
                     [ 3.57953347E+00, -6.10353680E-04,  1.01681433E-06,
                       9.07005884E-10, -9.04424499E-13, -1.43440860E+04,
                       3.50840928E+00]),
                NASA([1000.00, 3500.00],
                     [ 2.71518561E+00,  2.06252743E-03, -9.98825771E-07,
                       2.30053008E-10, -2.03647716E-14, -1.41518724E+04,
                       7.81868772E+00])),
        note='TPIS79')

species(name='CO2',
        atoms='C:1 O:2',
        thermo=(NASA([200.00, 1000.00],
                     [ 2.35677352E+00,  8.98459677E-03, -7.12356269E-06,
                       2.45919022E-09, -1.43699548E-13, -4.83719697E+04,
                       9.90105222E+00]),
                NASA([1000.00, 3500.00],
                     [ 3.85746029E+00,  4.41437026E-03, -2.21481404E-06,
                       5.23490188E-10, -4.72084164E-14, -4.87591660E+04,
                       2.27163806E+00])),
        note='L7/88')

species(name='CH2O',
        atoms='C:1 H:2 O:1',
        thermo=(NASA([200.00, 1000.00],
                     [ 4.79372315E+00, -9.90833369E-03,  3.73220008E-05,
                      -3.79285261E-08,  1.31772652E-11, -1.43089567E+04,
                       6.02812900E-01]),
                NASA([1000.00, 3500.00],
                     [ 1.76069008E+00,  9.20000082E-03, -4.42258813E-06,
                       1.00641212E-09, -8.83855640E-14, -1.39958323E+04,
                       1.36563230E+01])),
        note='L8/88')

species(name='HCO',
        atoms='C:1 H:1 O:1',
        thermo=(NASA([200.00, 1000.00],
                     [ 4.22118584E+00, -3.24392532E-03,  1.37799446E-05,
                      -1.33144093E-08,  4.33768865E-12,  3.83956496E+03,
                       3.39437243E+00]),
                NASA([1000.00, 3500.00],
                     [ 2.77217438E+00,  4.95695526E-03, -2.48445613E-06,
                       5.89161778E-10, -5.33508711E-14,  4.01191815E+03,
                       9.79834492E+00])),
        note='L12/89')

species(name='CH2OH',
        atoms='C:1 H:3 O:1',
        thermo=(NASA([250.00, 750.00],
                     [ 4.61197920E+00, -3.12037600E-03,  3.55316800E-05,
                      -4.93793980E-08,  2.20272470E-11, -3.60407340E+03,
                       2.83513990E+00]),
                NASA([750.00, 3000.00],
                     [ 3.74691030E+00,  8.86461210E-03, -4.25807220E-06,
                       1.00880400E-09, -9.45015610E-14, -3.66648240E+03,
                       5.42810950E+00])),
        note='JH/96')

species(name='CH3O',
        atoms='C:1 H:3 O:1',
        thermo=(NASA([200.00, 1000.00],
                     [ 3.71180502E+00, -2.80463306E-03,  3.76550971E-05,
                      -4.73072089E-08,  1.86588420E-11,  1.29569760E+03,
                       6.57240864E+00]),
                NASA([1000.00, 6000.00],
                     [ 4.75779238E+00,  7.44142474E-03, -2.69705176E-06,
                       4.38090504E-10, -2.63537098E-14,  3.78111940E+02,
                      -1.96680028E+00])),
        note='IU1/03')

species(name='CH3OH',
        atoms='C:1 H:4 O:1',
        thermo=(NASA([200.00, 1000.00],
                     [ 5.71539582E+00, -1.52309129E-02,  6.52441155E-05,
                      -7.10806889E-08,  2.61352698E-11, -2.56427656E+04,
                      -1.50409823E+00]),
                NASA([1000.00, 3500.00],
                     [ 1.78970791E+00,  1.40938292E-02, -6.36500835E-06,
                       1.38171085E-09, -1.17060220E-13, -2.53748747E+04,
                       1.45023623E+01])),
        note='L8/88')

species(name='HOCHO',
        atoms='C:1 H:2 O:2',
        thermo=(NASA([200.00, 1000.00],
                     [ 3.89836160E+00, -3.55877950E-03,  3.55205380E-05,
                      -4.38499590E-08,  1.71077690E-11, -4.67706090E+04,
                       7.34953970E+00]),
                NASA([1000.00, 6000.00],
                     [ 4.61383160E+00,  6.44963640E-03, -2.29082510E-06,
                       3.67160470E-10, -2.18736750E-14, -4.75148500E+04,
                       8.47883830E-01])),
        note='l8/88')

species(name='HOCH2O',
        atoms='C:1 H:3 O:2',
        thermo=(NASA([300.00, 1452.00],
                     [ 4.11183145E+00,  7.53850697E-03,  3.77337370E-06,
                      -5.38746005E-09,  1.45615887E-12, -2.28023001E+04,
                       7.46807254E+00]),
                NASA([1452.00, 5000.00],
                     [ 6.39521515E+00,  7.43673043E-03, -2.50422354E-06,
                       3.84879712E-10, -2.21778689E-14, -2.41108840E+04,
                      -6.63865583E+00])),
        note='2/16/99therm')

species(name='C2H',
        atoms='C:2 H:1',
        thermo=(NASA([200.00, 1000.00],
                     [ 2.88965733E+00,  1.34099611E-02, -2.84769501E-05,
                       2.94791045E-08, -1.09331511E-11,  6.68393932E+04,
                       6.22296438E+00]),
                NASA([1000.00, 3500.00],
                     [ 3.16780652E+00,  4.75221902E-03, -1.83787077E-06,
                       3.04190252E-10, -1.77232770E-14,  6.71210650E+04,
                       6.63589475E+00])),
        note='L1/91')

species(name='C2H2',
        atoms='C:2 H:2',
        thermo=(NASA([200.00, 1000.00],
                     [ 8.08681094E-01,  2.33615629E-02, -3.55171815E-05,
                       2.80152437E-08, -8.50072974E-12,  2.64289807E+04,
                       1.39397051E+01]),
                NASA([1000.00, 3500.00],
                     [ 4.14756964E+00,  5.96166664E-03, -2.37294852E-06,
                       4.67412171E-10, -3.61235213E-14,  2.59359992E+04,
                      -1.23028121E+00])),
        note='L1/91')

species(name='H2CC',
        atoms='C:2 H:2',
        thermo=(NASA([200.00, 1000.00],
                     [ 3.28154830E+00,  6.97647910E-03, -2.38552440E-06,
                      -1.21044320E-09,  9.81895450E-13,  4.86217940E+04,
                       5.92039100E+00]),
                NASA([1000.00, 6000.00],
                     [ 4.27803400E+00,  4.75628040E-03, -1.63010090E-06,
                       2.54628060E-10, -1.48863790E-14,  4.83166880E+04,
                       6.40237010E-01])),
        note='L12/89')

species(name='C2H3',
        atoms='C:2 H:3',
        thermo=(NASA([200.00, 1000.00],
                     [ 3.21246645E+00,  1.51479162E-03,  2.59209412E-05,
                      -3.57657847E-08,  1.47150873E-11,  3.48598468E+04,
                       8.51054025E+00]),
                NASA([1000.00, 3500.00],
                     [ 3.01672400E+00,  1.03302292E-02, -4.68082349E-06,
                       1.01763288E-09, -8.62607041E-14,  3.46128739E+04,
                       7.78732378E+00])),
        note='L2/92')

species(name='C2H4',
        atoms='C:2 H:4',
        thermo=(NASA([200.00, 1000.00],
                     [ 3.95920148E+00, -7.57052247E-03,  5.70990292E-05,
                      -6.91588753E-08,  2.69884373E-11,  5.08977593E+03,
                       4.09733096E+00]),
                NASA([1000.00, 3500.00],
                     [ 2.03611116E+00,  1.46454151E-02, -6.71077915E-06,
                       1.47222923E-09, -1.25706061E-13,  4.93988614E+03,
                       1.03053693E+01])),
        note='L1/91')

species(name='C2H5',
        atoms='C:2 H:5',
        thermo=(NASA([200.00, 1000.00],
                     [ 4.30646568E+00, -4.18658892E-03,  4.97142807E-05,
                      -5.99126606E-08,  2.30509004E-11,  1.28416265E+04,
                       4.70720924E+00]),
                NASA([1000.00, 3500.00],
                     [ 1.95465642E+00,  1.73972722E-02, -7.98206668E-06,
                       1.75217689E-09, -1.49641576E-13,  1.28575200E+04,
                       1.34624343E+01])),
        note='L12/92')

species(name='C2H6',
        atoms='C:2 H:6',
        thermo=(NASA([200.00, 1000.00],
                     [ 4.29142492E+00, -5.50154270E-03,  5.99438288E-05,
                      -7.08466285E-08,  2.68685771E-11, -1.15222055E+04,
                       2.66682316E+00]),
                NASA([1000.00, 3500.00],
                     [ 1.07188150E+00,  2.16852677E-02, -1.00256067E-05,
                       2.21412001E-09, -1.90002890E-13, -1.14263932E+04,
                       1.51156107E+01])),
        note='L8/88')

species(name='C2O',
        atoms='C:2 O:1',
        thermo=(NASA([200.00, 1000.00],
                     [ 2.86486100E+00,  1.19902160E-02, -1.83624480E-05,
                       1.57697390E-08, -5.38974520E-12,  3.37499320E+04,
                       8.88677720E+00]),
                NASA([1000.00, 6000.00],
                     [ 5.15127220E+00,  2.37267220E-03, -7.61359710E-07,
                       1.17064150E-10, -7.02578040E-15,  3.32418880E+04,
                      -2.21831350E+00])),
        note='RUS79')

species(name='HCCO',
        atoms='C:2 H:1 O:1',
        thermo=(NASA([300.00, 1000.00],
                     [ 2.25172140E+00,  1.76550210E-02, -2.37291010E-05,
                       1.72757590E-08, -5.06648110E-12,  2.00594490E+04,
                       1.24904170E+01]),
                NASA([1000.00, 4000.00],
                     [ 5.62820580E+00,  4.08534010E-03, -1.59345470E-06,
                       2.86260520E-10, -1.94078320E-14,  1.93272150E+04,
                      -3.93025950E+00])),
        note='SRIC91')

species(name='CH2CO',
        atoms='C:2 H:2 O:1',
        thermo=(NASA([200.00, 1000.00],
                     [ 2.13583630E+00,  1.81188721E-02, -1.73947474E-05,
                       9.34397568E-09, -2.01457615E-12, -7.27000000E+03,
                       1.22156480E+01]),
                NASA([1000.00, 3500.00],
                     [ 4.51129732E+00,  9.00359745E-03, -4.16939635E-06,
                       9.23345882E-10, -7.94838201E-14, -7.77850000E+03,
                       6.32247205E-01])),
        note='D05/90')

species(name='CH3CO',
        atoms='C:2 H:3 O:1',
        thermo=(NASA([200.00, 1000.00],
                     [ 4.16342570E+00, -2.32616100E-04,  3.42678200E-05,
                      -4.41052270E-08,  1.72756120E-11, -2.65745290E+03,
                       7.34682800E+00]),
                NASA([1000.00, 6000.00],
                     [ 5.94477310E+00,  7.86672050E-03, -2.88658820E-06,
                       4.72708750E-10, -2.85998610E-14, -3.78730750E+03,
                      -5.01367510E+00])),
        note='T9/92')

species(name='CH3CHO',
        atoms='C:2 H:4 O:1',
        thermo=(NASA([200.00, 1000.00],
                     [ 4.72945950E+00, -3.19328580E-03,  4.75349210E-05,
                      -5.74586110E-08,  2.19311120E-11, -2.15728780E+04,
                       4.10301590E+00]),
                NASA([1000.00, 6000.00],
                     [ 5.40411080E+00,  1.17230590E-02, -4.22631370E-06,
                       6.83724510E-10, -4.09848630E-14, -2.25931220E+04,
                      -3.48079170E+00])),
        note='L8/88')

species(name='C2H3OH',
        atoms='C:2 H:4 O:1',
        thermo=(NASA([300.00, 1410.00],
                     [-1.27972260E-01,  3.38506073E-02, -3.30644935E-05,
                       1.64858739E-08, -3.19935455E-12, -1.59914544E+04,
                       2.30438601E+01]),
                NASA([1410.00, 5000.00],
                     [ 8.32598158E+00,  8.03387281E-03, -2.63928405E-06,
                       3.98410726E-10, -2.26551155E-14, -1.83221436E+04,
                      -2.02080305E+01])),
        note='2/3/9THERM')

species(name='C2H5O',
        atoms='C:2 H:5 O:1',
        thermo=(NASA([300.00, 1393.00],
                     [ 2.87429022E-01,  2.86500918E-02, -1.83857008E-05,
                       6.03096179E-09, -8.04562643E-13, -3.35717377E+03,
                       2.37513898E+01]),
                NASA([1393.00, 5000.00],
                     [ 8.23717244E+00,  1.10885879E-02, -3.78808372E-06,
                       5.87613473E-10, -3.40712889E-14, -6.22948597E+03,
                      -1.93190543E+01])),
        note='8/9/4THERM')

species(name='CH2OCH',
        atoms='C:2 H:3 O:1',
        thermo=(NASA([298.15, 500.00],
                     [-3.83960840E-01,  2.38790380E-02, -1.24675870E-05,
                      -1.76864110E-09,  2.81424380E-12,  1.88362030E+04,
                       2.57417450E+01]),
                NASA([500.00, 3000.00],
                     [ 4.49940540E+00,  1.15526250E-02, -4.81441290E-06,
                       8.92349190E-10, -5.68705850E-14,  1.74739630E+04,
                       3.39255150E-01])),
        note='A12/04')

species(name='CH2OCH2',
        atoms='C:2 H:4 O:1',
        thermo=(NASA([298.15, 1000.00],
                     [ 3.75905320E+00, -9.44121800E-03,  8.03097210E-05,
                      -1.00807880E-07,  4.00399210E-11, -7.56081430E+03,
                       7.84974750E+00]),
                NASA([1000.00, 3000.00],
                     [ 5.48876410E+00,  1.20461900E-02, -4.33369310E-06,
                       7.00283110E-10, -4.19490880E-14, -9.18042510E+03,
                      -7.07996050E+00])),
        note='T6/92')

species(name='CH2CHO',
        atoms='C:2 H:3 O:1',
        thermo=(NASA([300.00, 1000.00],
                     [ 3.40906240E+00,  1.07385740E-02,  1.89149250E-06,
                      -7.15858310E-09,  2.86738510E-12,  6.20000000E+01,
                       9.57145350E+00]),
                NASA([1000.00, 5000.00],
                     [ 5.97566990E+00,  8.13059140E-03, -2.74362450E-06,
                       4.07030410E-10, -2.17601710E-14, -9.69500000E+02,
                      -5.03208790E+00])),
        note='D05/83')

species(name='HCCOH',
        atoms='C:2 H:2 O:1',
        thermo=(NASA([300.00, 1000.00],
                     [ 1.24237330E+00,  3.10722010E-02, -5.08668640E-05,
                       4.31371310E-08, -1.40145940E-11,  8.03161430E+03,
                       1.38743190E+01]),
                NASA([1000.00, 5000.00],
                     [ 5.92382910E+00,  6.79236000E-03, -2.56585640E-06,
                       4.49878410E-10, -2.99401010E-14,  7.26462600E+03,
                      -7.60177420E+00])),
        note='SRI91')

species(name='C2H4OH',
        atoms='C:2 H:5 O:1',
        thermo=(NASA([200.00, 1000.00],
                     [ 4.47893092E+00,  7.59782301E-03,  2.81794908E-05,
                      -4.26953487E-08,  1.78878934E-11, -4.71446256E+03,
                       6.38921206E+00]),
                NASA([1000.00, 6000.00],
                     [ 7.02824536E+00,  1.20037746E-02, -4.21306455E-06,
                       6.69471213E-10, -3.96371893E-14, -5.92493321E+03,
                      -9.40355948E+00])),
        note='t12/01')

species(name='HCCHOH',
        atoms='C:2 H:3 O:1',
        thermo=(NASA([300.00, 1411.00],
                     [ 9.99819422E-01,  2.70273221E-02, -2.66916711E-05,
                       1.32529706E-08, -2.53537494E-12,  1.35529195E+04,
                       1.96798606E+01]),
                NASA([1411.00, 5000.00],
                     [ 8.08589999E+00,  5.40439348E-03, -1.55258652E-06,
                       2.13486072E-10, -1.14112108E-14,  1.16372053E+04,
                      -1.65147643E+01])),
        note='8/13/7therm')

species(name='CH2COH',
        atoms='C:2 H:3 O:1',
        thermo=(NASA([300.00, 1408.00],
                     [ 1.85296033E+00,  2.20741770E-02, -1.93718642E-05,
                       8.89896145E-09, -1.61108469E-12,  1.23550086E+04,
                       1.62184602E+01]),
                NASA([1408.00, 5000.00],
                     [ 7.67940243E+00,  5.63609321E-03, -1.57911872E-06,
                       2.14057857E-10, -1.13615509E-14,  1.06531188E+04,
                      -1.40057705E+01])),
        note='8/13/7therm')

species(name='CH3CHOH',
        atoms='C:2 H:5 O:1',
        thermo=(NASA([300.00, 995.04],
                     [ 3.76833687E+00,  8.00813773E-03,  2.66644779E-05,
                      -3.66939631E-08,  1.35519905E-11, -8.34176353E+03,
                       9.49832589E+00]),
                NASA([995.04, 5000.00],
                     [ 6.95952386E+00,  1.17750088E-02, -4.03080988E-06,
                       6.32485588E-10, -3.72303902E-14, -9.79839142E+03,
                      -1.00096844E+01])))

species(name='C3H2',
        atoms='C:3 H:2',
        thermo=(NASA([200.00, 1000.00],
                     [ 4.50947760E+00,  1.74386050E-02, -2.45163210E-05,
                       1.89939670E-08, -5.79965200E-12,  6.30801910E+04,
                       4.28924610E+00]),
                NASA([1000.00, 6000.00],
                     [ 7.34812070E+00,  4.44764040E-03, -1.26103320E-06,
                       7.81318140E-11,  1.32162980E-14,  6.25516560E+04,
                      -9.10402110E+00])),
        note='T12/00')

species(name='C3H3',
        atoms='C:3 H:3',
        thermo=(NASA([300.00, 1000.00],