units(length='cm', time='s', quantity='mol', act_energy='cal/mol')
validate( reactions='no' )

ideal_gas(name='mit_2013_chem',
          elements="O H C N Ar",
          species="""H2               CO2              CO               CH4              C2H4             
                     C2H2             C2H6             C3H6             C3H8             aC3H4            
                     pC3H4            CH3OH            C4H8-1           C4H6-13          nC4H10           
                     N2               C2H5OH           benzene          nC4H10O          C2H3             
                     CH2CO            C2H4O            CH3CHO           H2O              nC4H8O           
                     C4H7OJ(8)        C4H7OJ(12)       C4H7OJ(13)       C4H7OJ(16)       CH2CHO           
                     C3H6O-enol2      C3H5O-enol2      CH2O             C4H8O-enol       C4H8O-enol2      
                     C4H8O-enol3      C4H9O-1          C4H9O-2          C4H9O-3          C4H9O-4          
                     C4H9O-5          C3H7O-N1         C3H5OJ(8)        C3H5OJ(12)       C3H5OJ(13)       
                     C3H6O            C2H5             H                O                O2               
                     OH               HO2              H2O2             C                CH               
                     CH2              CH2(S)           CH3              HCO              CH2OH            
                     CH3O             C2H              HCCO             HCCOH            AR               
                     C2O              HOC2H4O2         C3H2             pC3H3            aC3H5            
                     pC3H5            sC3H5            C3H7-1           C3H7-2           C2H5O-1          
                     C2H5O-2          C2H5O-3          C3H4O-enone      C3H4O            C4H7O-13         
                     C4H2             iC4H3            nC4H3            C4H4             C4H5-113         
                     nC4H5            iC4H5            C4H6-1           C4H6-12          C4H7-14          
                     C4H7-11          C4H7-12          C4H7-24          C4H9-1           C4H9-2           
                     C2H3O-1          C2H3O-2          C6H4             C6H5             C4H6-2           
                     C4H7-22          CH3CO            C6H10            C6H9_1_2_5       C6H9_CYC_1_3     
                     C6H8_CYC_1_4     C6H7_CYC_1_2     C6H10_CYC        C7H9             C8H8             
                     C8H9             C7H8             C3H7O2           CH2CH2CH2OOH     aC3H5O2          
                     nSPC(301)        nSPC(351)        nSPC(385)        nSPC(447)        nSPC(543)        
                     nSPC(801)        nSPC(879)        nSPC(1064)       nSPC(102)        C4H8-2           
                     C3H3O-enone      FULVENE          C6H5O            C5H5             C6H5OH           
                     cyC5H6           C5H5CH3_1        C5H5CH3_2        C5H5CH3_3        C8H6             
                     C6H5CH2          C6H5CCH2         C5H4CH3          C5H5CH2-1        C5H5CH2-2        
                     C5H5CH2-3        ME2CYBE          c5h4chchch2      CTCCCCTC         C*C*CC*C*C       
                     CH3CCCH2         C4H4-123         C5H10_1          C5H9_1_4         C5H8_CYC_1       
                     C5H9_CYC         C5H7_CYC_1_2     C4H7O_1_2        sBuOH            CH3C(OH)C2H5     
                     CH3CH(OH)CHCH3   CH3CH(O)C2H5     CH2CH(OH)C2H5    CH3CH(OH)CH2CH2  CH3CH(OH)CH2     
                     HOCHC2H5         H2CCCH3(OH)      CH3CH-O-CH3      CH3C(OH)CH3      acetone          
                     C2H5CHCHCH2      CH2C(OH)CH2      CH2C(O)CH3       CH3-O-C(CH3)2    C3H6O-enol       
                     MEK              sC4H8O           C4H6O(717)       cH2C(O)C2H5      CH3C(O)cHCH3     
                     CH3C(O)CH2cH2    MEKenol2         CH2C(OH)cHCH3    CH2C(OH)CH2cH2   cHC(OH)C2H5      
                     MEKenol          CH3CHcOH         CH3C(OH)cH       CH3C(OH)cCH3     CH3C(OH)CHcH2    
                     cH2CH(OH)C2H3    CH3CH(OH)cCH2    CH3CH(OH)CHcH    CH3CH(o)C2H3     CH3CHCHCHO       
                     CHCHCHO          CH3CCHCHO        CH3CHCHCO        C4H7O-14         tBuOH            
                     iC4H8            HOC(CH2)(CH3)2   OC(CH3)3         iC4H7            HCC(CH3)2        
                     tC4H9            iC4H9            iC4H10           sSPC(116)        sSPC(46)         
                     sSPC(56)         sSPC(752)        sSPC(332)        sSPC(1013)       sSPC(1072)       
                     sSPC(1151)       sSPC(1356)       sSPC(1697)       sSPC(1735)       sSPC(1909)       
                     sSPC(3071)       sSPC(3121)       sSPC(2810)       sSPC(1474)       sSPC(1590)       
                     tSPC(54)         tSPC(77)         tSPC(122)        tSPC(157)        tSPC(213)        
                     tSPC(97)         tSPC(439)        tSPC(343)        tSPC(346)        tSPC(878)        
                     H2CCCO           tSPC(1286)       tSPC(1416)       tSPC(1553)       C8H14            
                     tSPC(3683)       C4H8O2(62)       C4H7OJ(79)       tSPC(110)        C4H6O(105)       
                     C5H10_iso        C5H9J(5)         C5H9J(7)         C5H9J(8)         C5H9J(9)         
                     C5H11J(10)       C5H11J(11)       C5H8(95)         SPC(482)         SPC(483)         
                     C5H7J(504)       SPC(493)         SPC(494)         SPC(495)         SPC(496)         
                     SPC(498)         SPC(499)         C6H7J(511)       C6H7J(512)       C6H7J(505)       
                     C6H7J(506)       C8H15J(44)       SPC(425)         SPC(426)         C7H10(454)       
                     C12H10           biC5H5           C5H4C5H5         C10H9            fulvalene        
                     C10H8            iBuOH            C3H7O-N2         C4H9Oi1          C4H9Oi2          
                     C4H9Oi3          C4H9Oi4          C4H8O-i1         C4H8O-i2         C4H8O-i3         
                     iC4H7OJ(15)      iC4H7OJ(17)      iC4H7OJ(30)      iC4H7OJ(48)      iC4H7OJ(51)      
                     C3H3OH           C4H6Oi-12        C4H6Oi-13        iC4H5OJ(14)      iC4H5OJ(15)      
                     C3H3OJ(9)        HCCCHO           C3H3OJ           C3H5OJ           C3H5OJ(17)       
                     nC3H7OH          C4H7OJ(9)        C4H9O2J(52)      C4H9O2J(53)      C4H9O2J(54)      
                     C4H9O2J(55)      CH2CHCHCHOH      CHCHCHCHOH       CH2CHCCHOH       CH2CHCHCOH       
                     CHCCHCHOH        CHCCCHOH         C4H5O3J(1)       C4H5O3J(2)       OCOOH            
                     C4H6O3(21)       C4H5O2J(12)      CH2CHCHCHO       C4H6O3(3)        C4H5O2J(13)      
                     C4H7O3J(1)       C4H7O3J(2)       C4H7O3J(3)       C4H7O3J(4)       C4H7O3J(5)       
                     C4H7O3J(6)       C3H5O2J(54)      C4H5O3J(3)       CH2CHCH2O        OCH2CH2CH3       
                     HCOOH            CH2OOH           HOCHOOH          C4H5-114         C5H9_2_4         
                     CHCHCH2OH        CCCC(OO)OH       CcCC(OOH)OH      HOOCH2CO         CH2CHCH2CCH      
                     SPC(181)         SPC(1339)        SPC(1354)        SPC(2001)        SPC(2514)        
                     SPC(1656)        SPC(1356)        SPC(3373)        SPC(224)         SPC(1351)        
                     SPC(1341)        SPC(4491)        SPC(182)         C6H10(1)         C7H12(2)         
                     C6H9J(181)       SPC(1981)        SPC(4999)        SPC(2002)        SPC(347)         
                     SPC(4233)        SPC(4249)        SPC(1999)        SPC(282)         SPC(342)         
                     SPC(4924)        C6H8(1987)       SPC(8211)        SPC(4923)        C5H6(1632)       
                     SPC(10039)       C6H9J(182)       SPC(2635)        indene           C6H5_CHCHCHCH2   
                     C6H9CYCC5_1      C6H9_2D_4D_1J""",
          reactions='all',
          initial_state=state(temperature=300.0, pressure=OneAtm)
		  )

#-------------------------------------------------------------------------------
# Species data
#-------------------------------------------------------------------------------

species(name='H2',
        atoms='H:2',
        thermo=(NASA([300.00, 1000.00],
                     [ 3.29812400E+00,  8.24944200E-04, -8.14301500E-07,
                      -9.47543400E-11,  4.13487200E-13, -1.01252100E+03,
                      -3.29409400E+00]),
                NASA([1000.00, 5000.00],
                     [ 2.99142300E+00,  7.00064400E-04, -5.63382900E-08,
                      -9.23157800E-12,  1.58275200E-15, -8.35034000E+02,
                      -1.35511000E+00])),
        note='121286')

species(name='CO2',
        atoms='O:2 C:1',
        thermo=(NASA([300.00, 1000.00],
                     [ 2.27572500E+00,  9.92207200E-03, -1.04091100E-05,
                       6.86668700E-09, -2.11728000E-12, -4.83731400E+04,
                       1.01884900E+01]),
                NASA([1000.00, 5000.00],
                     [ 4.45362300E+00,  3.14016900E-03, -1.27841100E-06,
                       2.39399700E-10, -1.66903300E-14, -4.89669600E+04,
                      -9.55395900E-01])),
        note='121286')

species(name='CO',
        atoms='O:1 C:1',
        thermo=(NASA([300.00, 1000.00],
                     [ 3.26245200E+00,  1.51194100E-03, -3.88175500E-06,
                       5.58194400E-09, -2.47495100E-12, -1.43105400E+04,
                       4.84889700E+00]),
                NASA([1000.00, 5000.00],
                     [ 3.02507800E+00,  1.44268900E-03, -5.63082800E-07,
                       1.01858100E-10, -6.91095200E-15, -1.42683500E+04,
                       6.10821800E+00])),
        note='121286')

species(name='CH4',
        atoms='C:1 H:4',
        thermo=(NASA([200.00, 1000.00],
                     [ 5.14987613E+00, -1.36709788E-02,  4.91800599E-05,
                      -4.84743026E-08,  1.66693956E-11, -1.02466476E+04,
                      -4.64130376E+00]),
                NASA([1000.00, 3500.00],
                     [ 7.48514950E-02,  1.33909467E-02, -5.73285809E-06,
                       1.22292535E-09, -1.01815230E-13, -9.46834459E+03,
                       1.84373180E+01])),
        note='L8/88')

species(name='C2H4',
        atoms='C:2 H:4',
        thermo=(NASA([200.00, 1000.00],
                     [ 3.95920148E+00, -7.57052247E-03,  5.70990292E-05,
                      -6.91588753E-08,  2.69884373E-11,  5.08977593E+03,
                       4.09733096E+00]),
                NASA([1000.00, 3500.00],
                     [ 2.03611116E+00,  1.46454151E-02, -6.71077915E-06,
                       1.47222923E-09, -1.25706061E-13,  4.93988614E+03,
                       1.03053693E+01])),
        note='L1/91')

species(name='C2H2',
        atoms='C:2 H:2',
        thermo=(NASA([200.00, 1000.00],
                     [ 8.08681094E-01,  2.33615629E-02, -3.55171815E-05,
                       2.80152437E-08, -8.50072974E-12,  2.64289807E+04,
                       1.39397051E+01]),
                NASA([1000.00, 3500.00],
                     [ 4.14756964E+00,  5.96166664E-03, -2.37294852E-06,
                       4.67412171E-10, -3.61235213E-14,  2.59359992E+04,
                      -1.23028121E+00])),
        note='L1/91')

species(name='C2H6',
        atoms='C:2 H:6',
        thermo=(NASA([200.00, 1000.00],
                     [ 4.29142492E+00, -5.50154270E-03,  5.99438288E-05,
                      -7.08466285E-08,  2.68685771E-11, -1.15222055E+04,
                       2.66682316E+00]),
                NASA([1000.00, 3500.00],
                     [ 1.07188150E+00,  2.16852677E-02, -1.00256067E-05,
                       2.21412001E-09, -1.90002890E-13, -1.14263932E+04,
                       1.51156107E+01])),
        note='L8/88')

species(name='C3H6',
        atoms='C:3 H:6',
        thermo=(NASA([300.00, 995.04],
                     [ 3.64255985E+00,  3.89757558E-03,  4.54910439E-05,
                      -5.49011352E-08,  1.92835688E-11,  7.78191818E+02,
                       8.61457909E+00]),
                NASA([995.04, 5000.00],
                     [ 5.42559783E+00,  1.75791067E-02, -6.56311899E-06,
                       1.03199697E-09, -5.99721148E-14, -6.08798934E+02,
                      -5.16515272E+00])),
        note='RMG')

species(name='C3H8',
        atoms='C:3 H:8',
        thermo=(NASA([300.00, 1000.00],
                     [ 9.33553810E-01,  2.64245790E-02,  6.10597270E-06,
                      -2.19774990E-08,  9.51492530E-12, -1.39585200E+04,
                       1.92016910E+01]),
                NASA([1000.00, 5000.00],
                     [ 7.53413680E+00,  1.88722390E-02, -6.27184910E-06,
                       9.14756490E-10, -4.78380690E-14, -1.64675160E+04,
                      -1.78923490E+01])),
        note='L4/85')

species(name='aC3H4',
        atoms='C:3 H:4',
        thermo=(NASA([300.00, 995.04],
                     [ 3.56619360E+00,  4.29172814E-03,  3.37754983E-05,
                      -4.29088118E-08,  1.54512117E-11,  2.20254845E+04,
                       7.34162599E+00]),
                NASA([995.04, 5000.00],
                     [ 6.20209785E+00,  1.16035113E-02, -4.24253157E-06,
                       6.49613596E-10, -3.68734350E-14,  2.06143760E+04,
                      -9.81677751E+00])),
        note='RMG')

species(name='pC3H4',
        atoms='C:3 H:4',
        thermo=(NASA([200.00, 1000.00],
                     [ 2.68038690E+00,  1.57996510E-02,  2.50705960E-06,
                      -1.36576230E-08,  6.61542850E-12,  2.08023740E+04,
                       9.87693510E+00]),
                NASA([1000.00, 6000.00],
                     [ 6.02524000E+00,  1.13365420E-02, -4.02233910E-06,
                       6.43760630E-10, -3.82996350E-14,  1.96209420E+04,
                      -8.60437850E+00])),
        note='ATcT')

species(name='CH3OH',
        atoms='O:1 C:1 H:4',
        thermo=(NASA([200.00, 1000.00],
                     [ 5.71539582E+00, -1.52309129E-02,  6.52441155E-05,
                      -7.10806889E-08,  2.61352698E-11, -2.56427656E+04,
                      -1.50409823E+00]),
                NASA([1000.00, 3500.00],
                     [ 1.78970791E+00,  1.40938292E-02, -6.36500835E-06,
                       1.38171085E-09, -1.17060220E-13, -2.53748747E+04,
                       1.45023623E+01])),
        note='L8/88')

species(name='C4H8-1',
        atoms='C:4 H:8',
        thermo=(NASA([300.00, 995.04],
                     [ 3.38887348E+00,  1.16753402E-02,  5.39187583E-05,
                      -7.10067706E-08,  2.57553494E-11, -1.93288526E+03,
                       1.24275196E+01]),
                NASA([995.04, 5000.00],
                     [ 8.06996009E+00,  2.30144195E-02, -8.63501686E-06,
                       1.36143870E-09, -7.92542991E-14, -4.35738469E+03,
                      -1.76345584E+01])),
        note='RMG')

species(name='C4H6-13',
        atoms='C:4 H:6',
        thermo=(NASA([300.00, 1000.00],
                     [ 2.73144721E+00,  1.39063890E-02,  4.30537876E-05,
                      -6.34108493E-08,  2.42036418E-11,  1.14250236E+04,
                       1.24057762E+01]),
                NASA([1000.00, 4000.00],
                     [ 1.09677803E+01,  1.29510755E-02, -3.97761193E-06,
                       5.74948089E-10, -3.17795241E-14,  8.19411540E+03,
                      -3.52875277E+01])),
        note='RMG120189')

species(name='nC4H10',
        atoms='C:4 H:10',
        thermo=(NASA([300.00, 995.04],
                     [ 3.30538686E+00,  1.69397004E-02,  5.26457415E-05,
                      -7.16205466E-08,  2.60935571E-11, -1.73219078E+04,
                       1.22504344E+01]),
                NASA([995.04, 5000.00],
                     [ 8.14175944E+00,  2.81601588E-02, -1.04914204E-05,
                       1.64919250E-09, -9.58548867E-14, -1.98023414E+04,
                      -1.86858146E+01])),
        note='RMG')

species(name='N2',
        atoms='N:2',
        thermo=(NASA([300.00, 1000.00],
                     [ 3.29867700E+00,  1.40824000E-03, -3.96322200E-06,
                       5.64151500E-09, -2.44485500E-12, -1.02090000E+03,
                       3.95037200E+00]),
                NASA([1000.00, 5000.00],
                     [ 2.92664000E+00,  1.48797700E-03, -5.68476100E-07,
                       1.00970400E-10, -6.75335100E-15, -9.22797700E+02,
                       5.98052800E+00])),
        note='121286')

species(name='C2H5OH',
        atoms='O:1 C:2 H:6',
        thermo=(NASA([300.00, 1000.00],
                     [ 4.85869570E+00, -3.74017260E-03,  6.95553780E-05,
                      -8.86547960E-08,  3.51688350E-11, -2.99961320E+04,
                       4.80185450E+00]),
                NASA([1000.00, 5000.00],
                     [ 6.56243650E+00,  1.52042220E-02, -5.38967950E-06,
                       8.62250110E-10, -5.12897870E-14, -3.15256210E+04,
                      -9.47302020E+00])))

species(name='benzene',
        atoms='C:6 H:6',
        thermo=(NASA([300.00, 995.04],
                     [ 2.68313323E+00,  2.29288793E-03,  1.01785184E-04,
                      -1.27824197E-07,  4.65088580E-11,  8.44358204E+03,
                       1.36039292E+01]),
                NASA([995.04, 5000.00],
                     [ 1.27990377E+01,  1.76655693E-02, -5.86430896E-06,
                       8.97294950E-10, -5.17334226E-14,  3.65624658E+03,
                      -4.90892144E+01])))

species(name='nC4H10O',
        atoms='O:1 C:4 H:10',
        thermo=(NASA([300.00, 995.04],
                     [ 3.70583199E+00,  2.35895864E-02,  4.52852882E-05,
                      -6.96971195E-08,  2.63175583E-11, -3.56910432E+04,
                       1.36300474E+01]),
                NASA([995.04, 5000.00],
                     [ 1.08812781E+01,  2.80003033E-02, -1.14954988E-05,
                       1.93299223E-09, -1.17933485E-13, -3.87653483E+04,
                      -2.92243325E+01])),
        note='RMG')

species(name='C2H3',
        atoms='C:2 H:3',
        thermo=(NASA([200.00, 1000.00],
                     [ 3.21246645E+00,  1.51479162E-03,  2.59209412E-05,
                      -3.57657847E-08,  1.47150873E-11,  3.48598468E+04,
                       8.51054025E+00]),
                NASA([1000.00, 3500.00],
                     [ 3.01672400E+00,  1.03302292E-02, -4.68082349E-06,
                       1.01763288E-09, -8.62607041E-14,  3.46128739E+04,
                       7.78732378E+00])),
        note='L2/92')

species(name='CH2CO',
        atoms='O:1 C:2 H:2',
        thermo=(NASA([200.00, 1000.00],
                     [ 2.13583630E+00,  1.81188721E-02, -1.73947474E-05,
                       9.34397568E-09, -2.01457615E-12, -7.04291804E+03,
                       1.22156480E+01]),
                NASA([1000.00, 3500.00],
                     [ 4.51129732E+00,  9.00359745E-03, -4.16939635E-06,
                       9.23345882E-10, -7.94838201E-14, -7.55105311E+03,
                       6.32247205E-01])),
        note='L5/90')

species(name='C2H4O',
        atoms='O:1 C:2 H:4',
        thermo=(NASA([300.00, 995.04],
                     [ 3.35283039E+00,  3.95169463E-03,  3.77358560E-05,
                      -4.90583334E-08,  1.79706017E-11, -1.63155472E+04,
                       1.00919746E+01]),
                NASA([995.04, 5000.00],
                     [ 7.49770801E+00,  9.18339546E-03, -3.15511448E-06,
                       4.50622673E-10, -2.39651420E-14, -1.82242774E+04,
                      -1.53303849E+01])),
        note='RMG')

species(name='CH3CHO',
        atoms='O:1 C:2 H:4',
        thermo=(NASA([250.00, 995.04],
                     [ 3.97679723E+00,  1.29697259E-03,  3.42852569E-05,
                      -4.02528134E-08,  1.40450785E-11, -2.13953212E+04,
                       7.45497560E+00]),
                NASA([995.04, 5000.00],
                     [ 5.07429431E+00,  1.18655667E-02, -4.22923863E-06,
                       6.81521963E-10, -4.08543594E-14, -2.23553474E+04,
                      -1.56090723E+00])))

species(name='H2O',
        atoms='O:1 H:2',
        thermo=(NASA([300.00, 1000.00],
                     [ 3.38684200E+00,  3.47498200E-03, -6.35469600E-06,
                       6.96858100E-09, -2.50658800E-12, -3.02081100E+04,
                       2.59023300E+00]),
                NASA([1000.00, 5000.00],
                     [ 2.67214600E+00,  3.05629300E-03, -8.73026000E-07,
                       1.20099600E-10, -6.39161800E-15, -2.98992100E+04,
                       6.86281700E+00])),
        note='20387')

species(name='nC4H8O',
        atoms='O:1 C:4 H:8',
        thermo=(NASA([300.00, 995.04],
                     [ 3.76176479E+00,  2.57747745E-02,  2.18481205E-05,
                      -4.22256955E-08,  1.65870049E-11, -2.72436886E+04,
                       1.15658436E+01]),
                NASA([995.04, 5000.00],
                     [ 9.57363195E+00,  2.46958431E-02, -1.01184795E-05,
                       1.69848620E-09, -1.03515441E-13, -2.95034981E+04,
                      -2.19876450E+01])))

species(name='C4H7OJ(8)',
        atoms='O:1 C:4 H:7',
        thermo=(NASA([300.00, 1364.00],
                     [ 3.05234023E+00,  3.47293957E-02, -1.52769867E-05,
                       7.61891817E-10,  7.02868701E-13, -8.61142482E+03,
                       1.47974889E+01]),
                NASA([1364.00, 5000.00],
                     [ 1.52900714E+01,  1.33896524E-02, -4.84842512E-06,
                       7.86686991E-10, -4.70230432E-14, -1.35873616E+04,
                      -5.35024043E+01])))

species(name='C4H7OJ(12)',
        atoms='O:1 C:4 H:7',
        thermo=(NASA([300.00, 1681.00],
                     [ 3.11300817E+00,  3.23671408E-02, -1.20232490E-05,
                      -6.30291504E-10,  8.23640788E-13, -3.76949333E+03,
                       1.66843717E+01]),
                NASA([1681.00, 5000.00],
                     [ 1.26854321E+01,  1.66344856E-02, -6.42017234E-06,
                       1.08565102E-09, -6.67286697E-14, -7.53930203E+03,
                      -3.68208701E+01])))

species(name='C4H7OJ(13)',
        atoms='O:1 C:4 H:7',
        thermo=(NASA([300.00, 1682.00],
                     [ 3.96746306E+00,  2.79613867E-02, -6.47489016E-06,
                      -3.14934613E-09,  1.22945888E-12, -3.87265970E+03,
                       1.32567444E+01]),
                NASA([1682.00, 5000.00],
                     [ 1.12090089E+01,  1.84045154E-02, -6.89653012E-06,
                       1.14207401E-09, -6.92539913E-14, -6.95560096E+03,
                      -2.80687989E+01])))

species(name='C4H7OJ(16)',
        atoms='O:1 C:4 H:7',
        thermo=(NASA([300.00, 1365.00],
                     [ 3.05986324E+00,  3.49345775E-02, -1.57986181E-05,
                       1.15659430E-09,  6.08679615E-13, -2.52933213E+03,
                       1.58708587E+01]),
                NASA([1365.00, 5000.00],
                     [ 1.52574660E+01,  1.33941462E-02, -4.83288501E-06,
                       7.82499234E-10, -4.67126485E-14, -7.46229052E+03,
                      -5.21096978E+01])))

species(name='CH2CHO',
        atoms='O:1 C:2 H:3',
        thermo=(NASA([250.00, 995.04],
                     [ 3.73550270E+00,  1.76719581E-03,  3.31718471E-05,
                      -4.14498826E-08,  1.49827374E-11,  8.17238793E+02,
                       8.17763909E+00]),
                NASA([995.04, 5000.00],
                     [ 6.63717127E+00,  7.80247593E-03, -2.60810913E-06,
                       3.98831674E-10, -2.29715276E-14, -6.36454545E+02,
                      -1.02098235E+01])))

species(name='C3H6O-enol2',
        atoms='O:1 C:3 H:6',
        thermo=(NASA([300.00, 995.04],
                     [ 3.60782570E+00,  1.30135971E-02,  3.05329577E-05,
                      -4.37468181E-08,  1.61506364E-11, -1.68409911E+04,
                       1.20011608E+01]),
                NASA([995.04, 5000.00],
                     [ 7.08050531E+00,  1.85215315E-02, -7.11736789E-06,
                       1.14075918E-09, -6.72317746E-14, -1.84958501E+04,
                      -9.57809052E+00])),
        note='RMG')

species(name='C3H5O-enol2',
        atoms='O:1 C:3 H:5',
        thermo=(NASA([300.00, 995.04],
                     [ 3.13007173E+00,  1.34496050E-02,  3.49204588E-05,
                      -5.31008022E-08,  2.03490559E-11, -2.43865897E+03,
                       1.21074116E+01]),
                NASA([995.04, 5000.00],
                     [ 1.01157455E+01,  1.24719844E-02, -4.46477617E-06,
                       6.61848794E-10, -3.64167162E-14, -5.17067908E+03,
                      -2.83021911E+01])),
        note='RMG')

species(name='CH2O',
        atoms='O:1 C:1 H:2',
        thermo=(NASA([200.00, 1000.00],
                     [ 4.79372315E+00, -9.90833369E-03,  3.73220008E-05,
                      -3.79285261E-08,  1.31772652E-11, -1.43089567E+04,
                       6.02812900E-01]),
                NASA([1000.00, 3500.00],
                     [ 1.76069008E+00,  9.20000082E-03, -4.42258813E-06,
                       1.00641212E-09, -8.83855640E-14, -1.39958323E+04,
                       1.36563230E+01])),
        note='L8/88')

species(name='C4H8O-enol',
        atoms='O:1 C:4 H:8',
        thermo=(NASA([300.00, 995.04],
                     [ 3.02258658E+00,  2.25385344E-02,  3.99445278E-05,
                      -6.37690004E-08,  2.45175500E-11, -2.33773250E+04,
                       1.57100236E+01]),
                NASA([995.04, 5000.00],
                     [ 1.12861336E+01,  2.18491858E-02, -8.05365585E-06,
                       1.24364286E-09, -7.11119413E-14, -2.66322315E+04,
                      -3.22078119E+01])))

species(name='C4H8O-enol2',
        atoms='O:1 C:4 H:8',
        thermo=(NASA([300.00, 995.04],
                     [ 3.53995267E+00,  2.30680458E-02,  2.70715317E-05,
                      -4.54541282E-08,  1.73263271E-11, -2.12096859E+04,
                       1.38844470E+01]),
                NASA([995.04, 5000.00],
                     [ 8.41562201E+00,  2.55318629E-02, -9.90296761E-06,
                       1.60238216E-09, -9.51730755E-14, -2.32722582E+04,
                      -1.51021795E+01])))

species(name='C4H8O-enol3',
        atoms='O:1 C:4 H:8',
        thermo=(NASA([300.00, 995.04],
                     [ 3.71700136E+00,  1.83395158E-02,  4.70726716E-05,
                      -6.98840644E-08,  2.63133874E-11, -2.02791819E+04,
                       1.42487809E+01]),
                NASA([995.04, 5000.00],
                     [ 1.09703254E+01,  2.24914624E-02, -9.39987269E-06,
                       1.59436443E-09, -9.77719559E-14, -2.33716732E+04,
                      -2.89944344E+01])))

species(name='C4H9O-1',
        atoms='O:1 C:4 H:9',
        thermo=(NASA([300.00, 995.04],
                     [ 3.77054036E+00,  2.42311317E-02,  3.54432176E-05,
                      -5.86575262E-08,  2.25157679E-11, -1.10141080E+04,
                       1.51787892E+01]),
                NASA([995.04, 5000.00],
                     [ 1.07502372E+01,  2.54790904E-02, -1.06157981E-05,
                       1.80002028E-09, -1.10422093E-13, -1.38539276E+04,
                      -2.57496673E+01])),
        note='RMG')

species(name='C4H9O-2',
        atoms='O:1 C:4 H:9',
        thermo=(NASA([300.00, 995.04],
                     [ 4.00331953E+00,  2.34902912E-02,  2.90104275E-05,
                      -4.76130335E-08,  1.79375685E-11, -1.23217874E+04,
                       1.51262518E+01]),
                NASA([995.04, 5000.00],
                     [ 8.23855797E+00,  2.85144390E-02, -1.18023623E-05,
                       2.00078861E-09, -1.22852800E-13, -1.42562078E+04,
                      -1.07703272E+01])),
        note='RMG')

species(name='C4H9O-3',
        atoms='O:1 C:4 H:9',
        thermo=(NASA([300.00, 995.04],
                     [ 4.01144448E+00,  2.22255059E-02,  3.64658202E-05,
                      -5.74780557E-08,  2.16897986E-11, -1.23161388E+04,
                       1.48531730E+01]),
                NASA([995.04, 5000.00],
                     [ 9.60366290E+00,  2.68532519E-02, -1.13750461E-05,
                       1.95358081E-09, -1.20939420E-13, -1.47710363E+04,
                      -1.88416772E+01])),
        note='RMG')

species(name='C4H9O-4',
        atoms='O:1 C:4 H:9',
        thermo=(NASA([300.00, 995.04],
                     [ 3.65742738E+00,  3.03468822E-02,  2.02314839E-05,
                      -4.49332331E-08,  1.82206113E-11, -1.40112660E+04,
                       1.33051478E+01]),
                NASA([995.04, 5000.00],
                     [ 1.15947540E+01,  2.44705227E-02, -1.01512701E-05,
                       1.71398112E-09, -1.04819295E-13, -1.68795457E+04,
                      -3.14239392E+01])),
        note='RMG')

species(name='C4H9O-5',
        atoms='O:1 C:4 H:9',
        thermo=(NASA([300.00, 995.04],
                     [ 3.75053043E+00,  2.18564872E-02,  4.49757373E-05,
                      -6.87947146E-08,  2.59903101E-11, -9.45876145E+03,
                       1.31940211E+01]),
                NASA([995.04, 5000.00],
                     [ 1.09424660E+01,  2.58890155E-02, -1.07647566E-05,
                       1.82339572E-09, -1.11774144E-13, -1.25209072E+04,
                      -2.96622400E+01])),
        note='RMG')

species(name='C3H7O-N1',
        atoms='O:1 C:3 H:7',
        thermo=(NASA([300.00, 995.04],
                     [ 3.85193622E+00,  1.23321505E-02,  3.73777310E-05,